---- qbsp / ericw-tools v0.18.1 ----
Input file: model_trys-compile.map
Output file: model_trys.bsp

---- LoadMapFile ----
*** WARNING 05: No info_player_start entity in level
*** WARNING 06: No info_player_deathmatch entities in level
           42 faces
            7 brushes
           15 entities
            5 unique texnames
           27 texinfo

Opened WAD: ../wads/b_batt0.wad
Opened WAD: ../wads/b_batt1.wad
Opened WAD: ../wads/b_bh10.wad
Opened WAD: ../wads/b_bh25.wad
Opened WAD: ../wads/b_bh100.wad
Opened WAD: ../wads/b_exbox2.wad
Opened WAD: ../wads/b_explob.wad
Opened WAD: ../wads/b_nail0.wad
Opened WAD: ../wads/b_nail1.wad
Opened WAD: ../wads/b_rock0.wad
Opened WAD: ../wads/b_rock1.wad
Opened WAD: ../wads/b_shell0.wad
Opened WAD: ../wads/b_shell1.wad
Opened WAD: ../wads/dm1.wad
Opened WAD: ../wads/dm2.wad
Opened WAD: ../wads/dm3.wad
Opened WAD: ../wads/dm4.wad
Opened WAD: ../wads/dm5.wad
Opened WAD: ../wads/dm6.wad
Opened WAD: ../wads/e1m1.wad
Opened WAD: ../wads/e1m2.wad
Opened WAD: ../wads/e1m3.wad
Opened WAD: ../wads/e1m4.wad
Opened WAD: ../wads/e1m5.wad
Opened WAD: ../wads/e1m6.wad
Opened WAD: ../wads/e1m7.wad
Opened WAD: ../wads/e1m8.wad
Opened WAD: ../wads/e2m1.wad
Opened WAD: ../wads/e2m2.wad
Opened WAD: ../wads/e2m3.wad
Opened WAD: ../wads/e2m4.wad
Opened WAD: ../wads/e2m5.wad
Opened WAD: ../wads/e2m6.wad
Opened WAD: ../wads/e2m7.wad
Opened WAD: ../wads/e3m1.wad
Opened WAD: ../wads/e3m2.wad
Opened WAD: ../wads/e3m3.wad
Opened WAD: ../wads/e3m4.wad
Opened WAD: ../wads/e3m5.wad
Opened WAD: ../wads/e3m6.wad
Opened WAD: ../wads/e3m7.wad
Opened WAD: ../wads/e4m1.wad
Opened WAD: ../wads/e4m2.wad
Opened WAD: ../wads/e4m3.wad
Opened WAD: ../wads/e4m4.wad
Opened WAD: ../wads/e4m5.wad
Opened WAD: ../wads/e4m6.wad
Opened WAD: ../wads/e4m7.wad
Opened WAD: ../wads/e4m8.wad
Opened WAD: ../wads/end.wad
Opened WAD: ../wads/prototype.wad
Opened WAD: ../wads/start.wad
Processing hull 0...
---- Brush_LoadEntity ----
            7 brushes
           16 planes
---- CSGFaces ----
           42 brushfaces
           37 csgfaces
           38 mergedfaces
---- SolidBSP ----
           60 split nodes
           15 solid leafs
           42 empty leafs
            4 water leafs
            0 detail leafs
            0 detail illusionary leafs
            0 detail fence leafs
            0 illusionary visblocker leafs
          104 leaffaces
          103 nodefaces
---- Portalize ----
           46 vis leafs
           46 vis clusters
          106 vis portals
---- FillOutside ----
           38 outleafs
---- MergeAll ----
           21 mergefaces
---- SolidBSP ----
           14 split nodes
           10 solid leafs
            4 empty leafs
            1 water leafs
            0 detail leafs
            0 detail illusionary leafs
            0 detail fence leafs
            0 illusionary visblocker leafs
           37 leaffaces
           32 nodefaces
---- Portalize ----
            5 vis leafs
            5 vis clusters
            5 vis portals
---- Tjunc ----
           36 world edges
          110 edge points
           26 edges added by tjunctions
            0 faces added by tjunctions
---- MakeFaceEdges ----
---- GrowRegions ----
Processing hull 1...
Processing hull 2...
*** WARNING 19: No entities in empty space -- no filling performed (hull 2)
---- WriteBSPFile ----
Wrote model_trys.bsp
           36 planes              720
           44 vertexes            528
           14 nodes               336
           12 texinfo             480
           32 faces               640
           73 clipnodes           584
            6 leafs               168
           37 marksurfaces         74
          154 surfedges           616
           78 edges               312
            5 textures         141664
              lightdata             0
              visdata               0
              entdata            1719

0.055 seconds elapsed
Peak memory usage: 461560 (450.7k)
